Version 4
SHEET 1 888 800
WIRE -352 368 -352 336
WIRE 96 432 16 432
WIRE 400 432 240 432
WIRE 496 432 400 432
WIRE 576 432 496 432
WIRE 96 464 80 464
WIRE 496 480 496 432
WIRE -352 496 -352 448
WIRE -224 496 -352 496
WIRE 400 496 400 432
WIRE 96 512 80 512
WIRE -352 560 -352 496
WIRE 400 592 400 560
WIRE 496 592 496 560
WIRE 496 592 400 592
WIRE -224 608 -224 496
WIRE 496 624 496 592
WIRE -352 704 -352 640
WIRE -224 704 -224 672
WIRE -224 704 -352 704
WIRE -352 736 -352 704
FLAG 576 432 VOUT
FLAG 496 624 0
FLAG 16 432 VDD
FLAG 80 464 0
FLAG -352 736 0
FLAG -352 336 VDD
FLAG 80 512 VDD
SYMBOL res 480 464 R0
SYMATTR InstName R1
SYMATTR Value 100
SYMBOL cap 384 496 R0
SYMATTR InstName C1
SYMATTR Value 10µ
SYMBOL cap -240 608 R0
SYMATTR InstName C2
SYMATTR Value 10µ
SYMBOL voltage -352 544 R0
SYMATTR InstName V_1
SYMATTR Value 5
SYMBOL res -368 352 R0
SYMATTR InstName R2
SYMATTR Value 1m
SYMBOL AutoGenerated/TPS22916CN_TRANS 160 448 R0
WINDOW 3 8 94 Top 2
SYMATTR InstName U2
TEXT 88 696 Left 2 !.tran 0 10n 0 1p\n*.param VDD_BAT = -3\n*.param VDD_USB = 5\n*.step param VDD_BAT -5 0 1\n*.options plotwinsize=0 numdgt=15
