Version 4
SHEET 1 1688 864
WIRE -1824 -1328 -1824 -1360
WIRE -1824 -1200 -1824 -1248
WIRE -1632 -1200 -1824 -1200
WIRE -1824 -1136 -1824 -1200
WIRE -1632 -1088 -1632 -1200
WIRE -2016 -1040 -2016 -1072
WIRE -1824 -992 -1824 -1056
WIRE -1632 -992 -1632 -1024
WIRE -1632 -992 -1824 -992
WIRE -896 -992 -912 -992
WIRE -448 -976 -464 -976
WIRE -1824 -960 -1824 -992
WIRE -896 -960 -912 -960
WIRE -448 -944 -464 -944
WIRE -304 -928 -336 -928
WIRE -2016 -912 -2016 -960
WIRE -1456 -912 -2016 -912
WIRE -896 -912 -912 -912
WIRE -448 -912 -672 -912
WIRE -1216 -880 -1248 -880
WIRE -1104 -880 -1136 -880
WIRE -912 -880 -1104 -880
WIRE -896 -880 -912 -880
WIRE -448 -880 -464 -880
WIRE -1104 -864 -1104 -880
WIRE -2304 -848 -2304 -880
WIRE -2016 -848 -2016 -912
WIRE -912 -848 -912 -880
WIRE -896 -848 -912 -848
WIRE -1456 -800 -1456 -912
WIRE -1104 -768 -1104 -800
WIRE -2304 -720 -2304 -768
WIRE -2128 -720 -2304 -720
WIRE -2016 -704 -2016 -768
WIRE -1456 -704 -1456 -736
WIRE -1456 -704 -2016 -704
WIRE -2016 -672 -2016 -704
WIRE -2304 -656 -2304 -720
WIRE -2128 -608 -2128 -720
WIRE -2304 -512 -2304 -576
WIRE -2128 -512 -2128 -544
WIRE -2128 -512 -2304 -512
WIRE -2304 -480 -2304 -512
FLAG -2016 -672 0
FLAG -2304 -480 0
FLAG -2016 -1072 VDD_USB
FLAG -2304 -880 VDD_BAT
FLAG -1824 -960 0
FLAG -1824 -1360 VDDB_EN_
FLAG -464 -976 VDD_BAT
FLAG -464 -944 0
FLAG -464 -880 VDD_USB
FLAG -912 -960 0
FLAG -912 -992 VDD_BAT
FLAG -912 -912 VDD_USB
FLAG -1104 -768 0
FLAG -1248 -880 VDD_USB
FLAG -304 -928 NOBAT
SYMBOL res -2032 -1056 R0
SYMATTR InstName R3
SYMATTR Value 1m
SYMBOL cap -1472 -800 R0
SYMATTR InstName C3
SYMATTR Value 10µ
SYMBOL cap -2144 -608 R0
SYMATTR InstName C4
SYMATTR Value 10µ
SYMBOL res -2320 -864 R0
SYMATTR InstName R11
SYMATTR Value 1m
SYMBOL voltage -2304 -672 R0
SYMATTR InstName V_VDD_BAT
SYMATTR Value {VDD_BAT}
SYMATTR SpiceLine Cpar=1f
SYMBOL voltage -2016 -864 R0
SYMATTR InstName V_VDD_USB
SYMATTR Value PULSE(0 {VDD_USB} 100u 100u 100u 5000u)
SYMBOL cap -1648 -1088 R0
SYMATTR InstName C6
SYMATTR Value 10µ
SYMBOL voltage -1824 -1152 R0
SYMATTR InstName V_VDDB_EN_
SYMATTR Value {VDDB_EN_}
SYMBOL res -1840 -1344 R0
SYMATTR InstName R10
SYMATTR Value 1m
SYMBOL AutoGenerated/SN74AHC1G32 -400 -928 R0
SYMATTR InstName U1
SYMBOL AutoGenerated/SN74LVC1G386 -848 -912 R0
WINDOW 3 8 88 Top 2
SYMATTR InstName U3
SYMBOL cap -1120 -864 R0
SYMATTR InstName C8
SYMATTR Value 10µ
SYMBOL res -1120 -896 R90
WINDOW 0 0 56 VBottom 2
WINDOW 3 32 56 VTop 2
SYMATTR InstName R4
SYMATTR Value 100
TEXT -1848 -568 Left 2 !.tran 0 10m\n*.options plotwinsize=0 numdgt=15
TEXT -1840 -400 Left 2 !.param VDD_BAT = 3\n.param VDD_USB = 3\n*.step param VDD_USB .1 5 .25\n.param VDDB_EN_ = 0
